Circuit: * C:\users\nihilistictinkerer\Documents\personal\meaningless-stuff\hardware-engineering\course-AMA-EE6100-Electric-Circuits-Theory-1\Lesson-03-Ohms-Law\LAB_003_Tonino_Kent_Louise.asc

Direct Newton iteration for .op point succeeded.

Date: Thu Jun 26 05:13:11 2025
Total elapsed time: 0.091 seconds.

tnom = 27
temp = 27
method = modified trap
totiter = 2101
traniter = 2098
tranpoints = 1050
accept = 1050
rejected = 0
matrix size = 42
fillins = 0
solver = Normal
Thread vector: 1.3/1.1[2] 0.2/1.0[1] 0.2/1.0[1] 0.1/1.5[1]  2592/500
Matrix Compiler1: 956 bytes object code size  0.2/0.2/[0.1]
Matrix Compiler2: 1.89 KB object code size  0.2/0.3/[0.1]

