Circuit: * C:\users\nihilistictinkerer\Documents\personal\meaningless-stuff\hardware-engineering\course-AMA-EE6100-Electric-Circuits-Theory-1\Lesson-03-Ohms-Law\LAB_003_Tonino_Kent_Louise.asc

Direct Newton iteration for .op point succeeded.

Date: Thu Jun 26 03:03:54 2025
Total elapsed time: 0.083 seconds.

tnom = 27
temp = 27
method = modified trap
totiter = 2101
traniter = 2098
tranpoints = 1050
accept = 1050
rejected = 0
matrix size = 28
fillins = 0
solver = Normal
Matrix Compiler1: 634 bytes object code size  0.2/0.1/[0.1]
Matrix Compiler2: 1.26 KB object code size  0.1/0.2/[0.1]

