Circuit: * Z:\home\nihilistictinkerer\Documents\personal\meaningless-stuff\hw-hardware-engineering\course-AMA-EE6100-Electric-Circuits-Theory-1\Lesson-01-Basic-Concepts\LAB_001_Tonino_Kent_Louise.asc

Direct Newton iteration for .op point succeeded.

Date: Sun Jun 08 17:23:21 2025
Total elapsed time: 0.068 seconds.

tnom = 27
temp = 27
method = modified trap
totiter = 2101
traniter = 2098
tranpoints = 1050
accept = 1050
rejected = 0
matrix size = 5
fillins = 0
solver = Normal
Matrix Compiler1: 96 bytes object code size  0.1/0.1/[0.1]
Matrix Compiler2: 267 bytes object code size  0.1/0.1/[0.1]

