Circuit: * C:\users\nihilistictinkerer\Documents\personal\meaningless-stuff\hardware-engineering\course-AMA-EE6100-Electric-Circuits-Theory-1\Lesson-08-Thevenin-Norton-Theorem\Lab_010_Norton_Theorem.asc

Direct Newton iteration for .op point succeeded.

Date: Wed Jul 02 01:36:56 2025
Total elapsed time: 0.083 seconds.

tnom = 27
temp = 27
method = modified trap
totiter = 2101
traniter = 2098
tranpoints = 1050
accept = 1050
rejected = 0
matrix size = 5
fillins = 0
solver = Normal
Matrix Compiler1: 150 bytes object code size  0.1/0.1/[0.1]
Matrix Compiler2: 321 bytes object code size  0.1/0.1/[0.1]

